Version 4
SHEET 1 880 688
WIRE 96 32 -112 32
WIRE 496 48 160 48
WIRE -112 192 -112 32
WIRE 32 192 -112 192
WIRE 496 192 496 48
WIRE 496 192 96 192
WIRE -112 208 -112 192
WIRE 400 224 80 224
WIRE 80 272 80 224
WIRE 80 272 -48 272
WIRE 112 304 48 304
WIRE 400 304 400 224
WIRE 400 304 368 304
WIRE -112 320 -112 288
WIRE -48 320 -48 272
WIRE -48 320 -112 320
WIRE 48 336 48 304
WIRE -48 432 -96 432
WIRE 112 432 32 432
WIRE 496 432 496 192
WIRE 496 432 368 432
WIRE -96 464 -96 432
WIRE 32 640 32 432
WIRE 208 640 32 640
WIRE 496 640 496 432
WIRE 496 640 288 640
FLAG 48 336 0
FLAG -480 128 0
FLAG -608 128 0
FLAG -608 48 +30V
FLAG 128 16 +30V
FLAG -480 48 -30V
FLAG 128 80 -30V
FLAG -608 352 0
FLAG 368 496 +30V
FLAG 112 496 -30V
FLAG -96 464 0
FLAG -608 272 Inpt_Freq
FLAG 96 64 Inpt_Freq
FLAG -640 592 0
FLAG -640 512 Const
FLAG -400 560 Const
SYMBOL OpAmps\\LT1006 -512 -256 R0
SYMATTR InstName U1
SYMBOL OpAmps\\LT1102 240 400 R0
SYMATTR InstName U2
SYMBOL res -128 192 R0
SYMATTR InstName R1
SYMATTR Value 10k
SYMBOL cap 96 176 R90
WINDOW 0 0 32 VBottom 2
WINDOW 3 32 32 VTop 2
SYMATTR InstName C1
SYMATTR Value 0.05µ
SYMBOL voltage -608 32 R0
WINDOW 123 0 0 Left 0
WINDOW 39 0 0 Left 0
SYMATTR InstName V1
SYMATTR Value 10
SYMBOL voltage -480 32 R0
WINDOW 123 0 0 Left 0
WINDOW 39 0 0 Left 0
SYMATTR InstName V2
SYMATTR Value -10
SYMBOL voltage -608 256 R0
WINDOW 123 0 0 Left 0
WINDOW 39 0 0 Left 0
SYMATTR InstName V3
SYMATTR Value SINE(0 5 2000)
SYMBOL res 304 624 R90
WINDOW 0 0 56 VBottom 2
WINDOW 3 32 56 VTop 2
SYMATTR InstName R2
SYMATTR Value 10
SYMBOL res 48 416 R90
WINDOW 0 0 56 VBottom 2
WINDOW 3 32 56 VTop 2
SYMATTR InstName R3
SYMATTR Value 10k
SYMBOL voltage -640 496 R0
WINDOW 123 0 0 Left 0
WINDOW 39 0 0 Left 0
SYMATTR InstName V4
SYMATTR Value 5
SYMBOL OpAmps\\UniversalOpAmp 128 48 R0
SYMATTR InstName U3
TEXT -248 -120 Left 2 !.tran 0 2.5m 0
