Version 4
SHEET 1 880 688
WIRE 96 32 -112 32
WIRE 496 48 160 48
WIRE -1424 192 -1456 192
WIRE -112 192 -112 32
WIRE 32 192 -112 192
WIRE 496 192 496 48
WIRE 496 192 96 192
WIRE -1520 208 -1536 208
WIRE -112 208 -112 192
WIRE 400 224 80 224
WIRE 80 272 80 224
WIRE 80 272 -48 272
WIRE 112 304 48 304
WIRE 400 304 400 224
WIRE 400 304 368 304
WIRE -112 320 -112 288
WIRE -48 320 -48 272
WIRE -48 320 -112 320
WIRE -1536 336 -1536 208
WIRE -1424 336 -1424 192
WIRE -1424 336 -1472 336
WIRE 48 336 48 304
WIRE -1536 368 -1536 336
WIRE -48 432 -96 432
WIRE 112 432 32 432
WIRE 496 432 496 192
WIRE 496 432 368 432
WIRE -1424 464 -1424 336
WIRE -1424 464 -1472 464
WIRE -96 464 -96 432
WIRE -1536 480 -1536 448
WIRE -1344 496 -1344 464
WIRE -1344 496 -1472 496
WIRE -1312 496 -1344 496
WIRE -1200 496 -1232 496
WIRE -1200 512 -1200 496
WIRE 32 640 32 432
WIRE 208 640 32 640
WIRE 496 640 496 432
WIRE 496 640 288 640
FLAG 48 336 0
FLAG -480 128 0
FLAG -608 128 0
FLAG -608 48 +30V
FLAG 128 16 +30V
FLAG -480 48 -30V
FLAG 128 80 -30V
FLAG -608 352 0
FLAG 368 496 +30V
FLAG 112 496 -30V
FLAG -96 464 0
FLAG -608 272 Inpt_Freq
FLAG 96 64 Inpt_Freq
FLAG -640 592 0
FLAG -640 512 Const
FLAG -400 560 Const
FLAG -1824 288 0
FLAG -1824 432 0
FLAG -1200 512 0
FLAG -1488 160 V+
FLAG -1504 448 V+
FLAG -1824 208 V+
FLAG -1488 224 V-
FLAG -1504 512 V-
FLAG -1824 352 V-
FLAG -1664 96 DDS_Out
FLAG -1744 576 DDS_Out
FLAG -1744 656 0
FLAG -2128 576 0
FLAG -2128 496 temp
FLAG -1520 176 temp
SYMBOL OpAmps\\LT1006 -512 -256 R0
SYMATTR InstName U1
SYMBOL OpAmps\\LT1102 240 400 R0
SYMATTR InstName U2
SYMBOL res -128 192 R0
SYMATTR InstName R1
SYMATTR Value 10k
SYMBOL cap 96 176 R90
WINDOW 0 0 32 VBottom 2
WINDOW 3 32 32 VTop 2
SYMATTR InstName C1
SYMATTR Value 0.05µ
SYMBOL voltage -608 32 R0
WINDOW 123 0 0 Left 0
WINDOW 39 0 0 Left 0
SYMATTR InstName V1
SYMATTR Value 10
SYMBOL voltage -480 32 R0
WINDOW 123 0 0 Left 0
WINDOW 39 0 0 Left 0
SYMATTR InstName V2
SYMATTR Value -10
SYMBOL voltage -608 256 R0
WINDOW 123 0 0 Left 0
WINDOW 39 0 0 Left 0
SYMATTR InstName V3
SYMATTR Value SINE(0 5 2000)
SYMBOL res 304 624 R90
WINDOW 0 0 56 VBottom 2
WINDOW 3 32 56 VTop 2
SYMATTR InstName R2
SYMATTR Value 10
SYMBOL res 48 416 R90
WINDOW 0 0 56 VBottom 2
WINDOW 3 32 56 VTop 2
SYMATTR InstName R3
SYMATTR Value 10k
SYMBOL voltage -640 496 R0
WINDOW 123 0 0 Left 0
WINDOW 39 0 0 Left 0
SYMATTR InstName V4
SYMATTR Value 5
SYMBOL OpAmps\\UniversalOpAmp 128 48 R0
SYMATTR InstName U3
SYMBOL OpAmps\\UniversalOpAmp -1488 192 M180
SYMATTR InstName U4
SYMBOL OpAmps\\UniversalOpAmp -1504 480 R180
SYMATTR InstName U5
SYMATTR Value2 Avol=1Meg GBW=200000 Vos=0
SYMBOL cap -1472 320 R90
WINDOW 0 0 32 VBottom 2
WINDOW 3 32 32 VTop 2
SYMATTR InstName C2
SYMATTR Value 50n
SYMBOL res -1520 464 R180
WINDOW 0 36 76 Left 2
WINDOW 3 36 40 Left 2
SYMATTR InstName R4
SYMATTR Value 10k
SYMBOL res -1440 480 R270
WINDOW 0 32 56 VTop 2
WINDOW 3 0 56 VBottom 2
SYMATTR InstName R5
SYMATTR Value 10
SYMBOL res -1328 512 R270
WINDOW 0 32 56 VTop 2
WINDOW 3 0 56 VBottom 2
SYMATTR InstName R6
SYMATTR Value 1k
SYMBOL voltage -1824 192 R0
WINDOW 123 0 0 Left 0
WINDOW 39 0 0 Left 0
SYMATTR InstName V5
SYMATTR Value 30
SYMBOL voltage -1824 336 R0
WINDOW 123 0 0 Left 0
WINDOW 39 0 0 Left 0
SYMATTR InstName V6
SYMATTR Value -30
SYMBOL voltage -1744 560 R0
WINDOW 123 0 0 Left 0
WINDOW 39 0 0 Left 0
SYMATTR InstName V7
SYMATTR Value SINE(0 5 2000)
SYMBOL voltage -2128 480 R0
WINDOW 123 0 0 Left 0
WINDOW 39 0 0 Left 0
SYMATTR InstName V8
SYMATTR Value 5
TEXT -248 -120 Left 2 !.tran 0 2.5m 0
